<?xml version="1.0" encoding="UTF-8"?>

<!-- generated on 2023-11-16 14:50:42 by Eclipse SUMO netedit Version 1.18.0
<configuration xmlns:xsi="http://www.w3.org/2001/XMLSchema-instance" xsi:noNamespaceSchemaLocation="http://sumo.dlr.de/xsd/neteditConfiguration.xsd">

    <input>
        <sumo-net-file value="C:\Users\Pietro\Desktop\eclipse-mosaic-23.0\scenarios\Coroglio\sumo\Coroglio_2.net.xml"/>
    </input>

    <output>
        <output-file value="C:\Users\Pietro\Desktop\eclipse-mosaic-23.0\scenarios\Coroglio\sumo\Coroglio_2.net.xml"/>
        <output.street-names value="true"/>
    </output>

    <processing>
        <geometry.min-radius.fix.railways value="false"/>
        <geometry.max-grade.fix value="false"/>
        <offset.disable-normalization value="true"/>
        <lefthand value="0"/>
    </processing>

    <junctions>
        <no-turnarounds value="true"/>
        <junctions.corner-detail value="5"/>
        <junctions.limit-turn-speed value="5.50"/>
        <rectangular-lane-cut value="0"/>
    </junctions>

    <pedestrian>
        <walkingareas value="0"/>
    </pedestrian>

</configuration>
-->

<net version="1.16" junctionCornerDetail="5" limitTurnSpeed="5.50" xmlns:xsi="http://www.w3.org/2001/XMLSchema-instance" xsi:noNamespaceSchemaLocation="http://sumo.dlr.de/xsd/net_file.xsd">

    <location netOffset="-429079.44,-4516147.87" convBoundary="0.00,0.00,3673.79,3440.43" origBoundary="14.159043,40.793467,14.202524,40.831927" projParameter="+proj=utm +zone=33 +ellps=WGS84 +datum=WGS84 +units=m +no_defs"/>

    <type id="highway.cycleway" priority="1" numLanes="1" speed="5.56" allow="bicycle" oneway="0" width="2.00"/>
    <type id="highway.footway" priority="1" numLanes="1" speed="2.78" allow="pedestrian" oneway="1" width="2.00"/>
    <type id="highway.path" priority="1" numLanes="1" speed="5.56" allow="pedestrian bicycle" oneway="0" width="2.00"/>
    <type id="highway.pedestrian" priority="1" numLanes="1" speed="2.78" allow="pedestrian" oneway="1" width="2.00"/>
    <type id="highway.primary" priority="12" numLanes="2" speed="27.78" disallow="tram rail_urban rail rail_electric rail_fast ship" oneway="0"/>
    <type id="highway.residential" priority="3" numLanes="1" speed="13.89" disallow="tram rail_urban rail rail_electric rail_fast ship" oneway="0"/>
    <type id="highway.service" priority="1" numLanes="1" speed="5.56" allow="pedestrian delivery bicycle" oneway="0"/>
    <type id="highway.steps" priority="1" numLanes="1" speed="1.39" allow="pedestrian" oneway="1" width="2.00"/>
    <type id="highway.tertiary" priority="10" numLanes="1" speed="22.22" disallow="tram rail_urban rail rail_electric rail_fast ship" oneway="0"/>
    <type id="highway.track" priority="1" numLanes="1" speed="5.56" allow="pedestrian motorcycle moped bicycle" oneway="0"/>
    <type id="highway.unclassified" priority="4" numLanes="1" speed="13.89" disallow="tram rail_urban rail rail_electric rail_fast ship" oneway="0"/>
    <type id="railway.rail" priority="20" numLanes="1" speed="44.44" allow="rail" oneway="1"/>

    <edge id=":10202632427_0" function="internal">
        <lane id=":10202632427_0_0" index="0" allow="pedestrian delivery bicycle" speed="5.56" length="5.00" shape="1289.74,2711.15 1284.85,2710.08"/>
    </edge>
    <edge id=":10202632427_1" function="internal">
        <lane id=":10202632427_1_0" index="0" allow="pedestrian delivery bicycle" speed="3.65" length="1.44" shape="1289.74,2711.15 1288.74,2710.12"/>
    </edge>
    <edge id=":10202632427_4" function="internal">
        <lane id=":10202632427_4_0" index="0" allow="pedestrian delivery bicycle" speed="3.65" length="3.23" shape="1288.74,2710.12 1288.52,2709.25 1289.08,2708.55 1290.43,2708.03"/>
    </edge>
    <edge id=":10202632427_2" function="internal">
        <lane id=":10202632427_2_0" index="0" allow="pedestrian delivery bicycle" speed="5.56" length="5.00" shape="1285.54,2706.96 1290.43,2708.03"/>
    </edge>
    <edge id=":10202632427_3" function="internal">
        <lane id=":10202632427_3_0" index="0" allow="pedestrian delivery bicycle" speed="3.65" length="1.44" shape="1285.54,2706.96 1286.54,2707.99"/>
    </edge>
    <edge id=":10202632427_5" function="internal">
        <lane id=":10202632427_5_0" index="0" allow="pedestrian delivery bicycle" speed="3.65" length="3.23" shape="1286.54,2707.99 1286.76,2708.86 1286.20,2709.56 1284.85,2710.08"/>
    </edge>
    <edge id=":10938013139_0" function="internal">
        <lane id=":10938013139_0_0" index="0" allow="pedestrian delivery bicycle" speed="3.65" length="4.67" shape="1252.85,1124.43 1251.91,1123.34 1251.74,1122.46 1252.34,1121.80 1253.71,1121.35"/>
    </edge>
    <edge id=":1242005406_0" function="internal">
        <lane id=":1242005406_0_0" index="0" disallow="tram rail_urban rail rail_electric rail_fast ship" speed="13.89" length="4.10" shape="1903.33,509.09 1902.21,509.58 1901.47,509.96 1900.76,510.40 1899.75,511.08"/>
    </edge>
    <edge id=":1242005406_1" function="internal">
        <lane id=":1242005406_1_0" index="0" disallow="tram rail_urban rail rail_electric rail_fast ship" speed="13.89" length="4.70" shape="1897.97,508.42 1899.12,507.65 1899.94,507.14 1900.79,506.71 1902.07,506.15"/>
    </edge>
    <edge id=":1242005587_0" function="internal">
        <lane id=":1242005587_0_0" index="0" disallow="tram rail_urban rail rail_electric rail_fast ship" speed="13.89" length="3.81" shape="2313.90,1137.76 2313.36,1136.78 2312.90,1136.15 2312.35,1135.60 2311.50,1134.86"/>
    </edge>
    <edge id=":1242005587_1" function="internal">
        <lane id=":1242005587_1_0" index="0" disallow="tram rail_urban rail rail_electric rail_fast ship" speed="4.77" length="2.49" shape="2313.90,1137.76 2313.07,1135.64 2313.11,1135.43"/>
    </edge>
    <edge id=":1242005587_4" function="internal">
        <lane id=":1242005587_4_0" index="0" disallow="tram rail_urban rail rail_electric rail_fast ship" speed="4.77" length="4.77" shape="2313.11,1135.43 2313.31,1134.46 2314.60,1134.22 2316.96,1134.92"/>
    </edge>
    <edge id=":1242005587_2" function="internal">
        <lane id=":1242005587_2_0" index="0" disallow="tram rail_urban rail rail_electric rail_fast ship" speed="13.89" length="4.19" shape="2313.62,1132.46 2314.53,1133.31 2315.15,1133.91 2315.84,1134.40 2316.96,1134.92"/>
    </edge>
    <edge id=":1242005587_3" function="internal">
        <lane id=":1242005587_3_0" index="0" disallow="tram rail_urban rail rail_electric rail_fast ship" speed="3.65" length="1.44" shape="2313.62,1132.46 2313.99,1133.85"/>
    </edge>
    <edge id=":1242005587_5" function="internal">
        <lane id=":1242005587_5_0" index="0" disallow="tram rail_urban rail rail_electric rail_fast ship" speed="3.65" length="3.23" shape="2313.99,1133.85 2313.76,1134.71 2312.93,1135.05 2311.50,1134.86"/>
    </edge>
    <edge id=":1242966955_0" function="internal">
        <lane id=":1242966955_0_0" index="0" disallow="tram rail_urban rail rail_electric rail_fast ship" speed="13.89" length="12.61" shape="517.05,2760.28 511.59,2748.91"/>
    </edge>
    <edge id=":1242966955_1" function="internal">
        <lane id=":1242966955_1_0" index="0" disallow="tram rail_urban rail rail_electric rail_fast ship" speed="5.86" length="4.43" shape="517.05,2760.28 516.28,2757.75 516.60,2756.00"/>
    </edge>
    <edge id=":1242966955_4" function="internal">
        <lane id=":1242966955_4_0" index="0" disallow="tram rail_urban rail rail_electric rail_fast ship" speed="5.86" length="4.69" shape="516.60,2756.00 516.62,2755.87 518.09,2754.65 520.69,2754.10"/>
    </edge>
    <edge id=":1242966955_2" function="internal">
        <lane id=":1242966955_2_0" index="0" disallow="tram rail_urban rail rail_electric rail_fast ship" speed="5.88" length="9.11" shape="508.12,2755.22 510.69,2754.58 512.12,2753.31 512.42,2751.42 511.59,2748.91"/>
    </edge>
    <edge id=":1242966955_3" function="internal">
        <lane id=":1242966955_3_0" index="0" disallow="tram rail_urban rail rail_electric rail_fast ship" speed="13.89" length="12.61" shape="508.12,2755.22 520.69,2754.10"/>
    </edge>
    <edge id=":1242966958_0" function="internal">
        <lane id=":1242966958_0_0" index="0" disallow="tram rail_urban rail rail_electric rail_fast ship" speed="6.75" length="8.54" shape="848.60,2679.74 847.99,2677.48 846.85,2675.85 845.17,2674.83 842.95,2674.43"/>
    </edge>
    <edge id=":1242966958_1" function="internal">
        <lane id=":1242966958_1_0" index="0" disallow="tram rail_urban rail rail_electric rail_fast ship" speed="6.53" length="8.39" shape="856.03,2673.13 853.92,2673.96 852.50,2675.26 851.79,2677.05 851.77,2679.32"/>
    </edge>
    <edge id=":1242966958_2" function="internal">
        <lane id=":1242966958_2_0" index="0" disallow="tram rail_urban rail rail_electric rail_fast ship" speed="13.89" length="13.19" shape="856.03,2673.13 852.64,2673.85 849.54,2674.28 846.42,2674.47 842.95,2674.43"/>
    </edge>
    <edge id=":1242966962_0" function="internal">
        <lane id=":1242966962_0_0" index="0" disallow="tram rail_urban rail rail_electric rail_fast ship" speed="13.89" length="1.22" shape="566.15,2909.81 566.12,2909.45 566.12,2909.20 566.14,2908.95 566.20,2908.60"/>
    </edge>
    <edge id=":1242966962_1" function="internal">
        <lane id=":1242966962_1_0" index="0" disallow="tram rail_urban rail rail_electric rail_fast ship" speed="13.89" length="0.41" shape="569.35,2909.12 569.34,2909.24 569.33,2909.32 569.33,2909.40 569.34,2909.52"/>
    </edge>
    <edge id=":1242967007_0" function="internal">
        <lane id=":1242967007_0_0" index="0" allow="pedestrian delivery bicycle" speed="9.72" length="16.65" shape="593.33,2948.14 576.70,2947.35"/>
    </edge>
    <edge id=":1242967007_1" function="internal">
        <lane id=":1242967007_1_0" index="0" disallow="tram rail_urban rail rail_electric rail_fast ship" speed="12.48" length="17.91" shape="593.33,2948.14 588.71,2947.35 584.67,2945.66 581.20,2943.08 578.31,2939.61"/>
    </edge>
    <edge id=":1242967007_2" function="internal">
        <lane id=":1242967007_2_0" index="0" disallow="tram rail_urban rail rail_electric rail_fast ship" speed="12.16" length="16.98" shape="579.79,2936.06 582.72,2939.73 585.99,2942.43 589.61,2944.17 593.56,2944.95"/>
    </edge>
    <edge id=":1242967007_3" function="internal">
        <lane id=":1242967007_3_0" index="0" allow="pedestrian delivery bicycle" speed="7.17" length="4.61" shape="579.79,2936.06 581.97,2940.13"/>
    </edge>
    <edge id=":1242967007_7" function="internal">
        <lane id=":1242967007_7_0" index="0" allow="pedestrian delivery bicycle" speed="7.17" length="11.95" shape="581.97,2940.13 582.53,2941.18 582.93,2944.77 580.99,2946.82 576.70,2947.35"/>
    </edge>
    <edge id=":1242967007_4" function="internal">
        <lane id=":1242967007_4_0" index="0" allow="pedestrian delivery bicycle" speed="4.87" length="6.80" shape="576.85,2944.15 578.67,2943.94 579.52,2943.12 579.40,2941.67 578.31,2939.61"/>
    </edge>
    <edge id=":1242967007_5" function="internal">
        <lane id=":1242967007_5_0" index="0" allow="pedestrian delivery bicycle" speed="9.72" length="16.73" shape="576.85,2944.15 593.56,2944.95"/>
    </edge>
    <edge id=":1242967007_6" function="internal">
        <lane id=":1242967007_6_0" index="0" allow="pedestrian delivery bicycle" speed="3.65" length="4.67" shape="576.85,2944.15 578.01,2945.00 578.37,2945.82 577.94,2946.60 576.70,2947.35"/>
    </edge>
    <edge id=":1242967028_0" function="internal">
        <lane id=":1242967028_0_0" index="0" disallow="tram rail_urban rail rail_electric rail_fast ship" speed="13.89" length="11.51" shape="748.28,2435.95 747.67,2432.82 746.85,2430.39 746.03,2427.96 745.43,2424.83"/>
    </edge>
    <edge id=":1242967028_1" function="internal">
        <lane id=":1242967028_1_0" index="0" disallow="tram rail_urban rail rail_electric rail_fast ship" speed="6.75" length="6.15" shape="748.28,2435.95 748.45,2433.45 749.58,2431.61 750.87,2430.87"/>
    </edge>
    <edge id=":1242967028_6" function="internal">
        <lane id=":1242967028_6_0" index="0" disallow="tram rail_urban rail rail_electric rail_fast ship" speed="6.75" length="4.05" shape="750.87,2430.87 751.68,2430.41 754.75,2429.87"/>
    </edge>
    <edge id=":1242967028_2" function="internal">
        <lane id=":1242967028_2_0" index="0" disallow="tram rail_urban rail rail_electric rail_fast ship" speed="6.68" length="9.22" shape="748.61,2424.48 749.23,2426.96 750.46,2428.69 752.30,2429.66 754.75,2429.87"/>
    </edge>
    <edge id=":1242967028_3" function="internal">
        <lane id=":1242967028_3_0" index="0" disallow="tram rail_urban rail rail_electric rail_fast ship" speed="3.65" length="1.44" shape="748.61,2424.48 747.95,2425.76"/>
    </edge>
    <edge id=":1242967028_7" function="internal">
        <lane id=":1242967028_7_0" index="0" disallow="tram rail_urban rail rail_electric rail_fast ship" speed="3.65" length="3.23" shape="747.95,2425.76 747.20,2426.25 746.36,2425.93 745.43,2424.83"/>
    </edge>
    <edge id=":1242967028_4" function="internal">
        <lane id=":1242967028_4_0" index="0" disallow="tram rail_urban rail rail_electric rail_fast ship" speed="6.45" length="9.03" shape="740.43,2430.91 742.85,2430.35 744.49,2429.15 745.35,2427.31 745.43,2424.83"/>
    </edge>
    <edge id=":1242967028_5" function="internal">
        <lane id=":1242967028_5_0" index="0" disallow="tram rail_urban rail rail_electric rail_fast ship" speed="13.89" length="14.37" shape="740.43,2430.91 754.75,2429.87"/>
    </edge>
    <edge id=":1242967041_0" function="internal">
        <lane id=":1242967041_0_0" index="0" disallow="tram rail_urban rail rail_electric rail_fast ship" speed="18.40" length="8.26" shape="641.39,2252.27 641.28,2254.70 641.43,2256.38 641.89,2258.01 642.67,2260.33"/>
    </edge>
    <edge id=":1242967041_1" function="internal">
        <lane id=":1242967041_1_0" index="0" disallow="tram rail_urban rail rail_electric rail_fast ship" speed="14.41" length="8.23" shape="641.39,2252.27 641.12,2254.67 640.65,2256.28 639.84,2257.77 638.53,2259.83"/>
    </edge>
    <edge id=":1242967041_2" function="internal">
        <lane id=":1242967041_2_0" index="0" disallow="tram rail_urban rail rail_electric rail_fast ship" speed="8.00" length="1.68" shape="637.59,2254.74 639.13,2255.40"/>
    </edge>
    <edge id=":1242967041_3" function="internal">
        <lane id=":1242967041_3_0" index="0" disallow="tram rail_urban rail rail_electric rail_fast ship" speed="8.00" length="6.20" shape="639.13,2255.40 639.23,2255.45 640.63,2256.61 641.78,2258.24 642.67,2260.33"/>
    </edge>
    <edge id=":1242967058_0" function="internal">
        <lane id=":1242967058_0_0" index="0" disallow="tram rail_urban rail rail_electric rail_fast ship" speed="7.39" length="10.03" shape="622.40,2279.55 620.80,2277.85 618.76,2276.97 616.29,2276.93 613.39,2277.71"/>
    </edge>
    <edge id=":1242967058_1" function="internal">
        <lane id=":1242967058_1_0" index="0" disallow="tram rail_urban rail rail_electric rail_fast ship" speed="22.22" length="10.58" shape="622.40,2279.55 620.53,2277.13 618.92,2275.54 617.41,2273.90 615.81,2271.32"/>
    </edge>
    <edge id=":1242967058_2" function="internal">
        <lane id=":1242967058_2_0" index="0" disallow="tram rail_urban rail rail_electric rail_fast ship" speed="22.22" length="13.19" shape="625.44,2272.35 622.32,2273.87 619.49,2275.19 616.61,2276.43 613.39,2277.71"/>
    </edge>
    <edge id=":1242967058_3" function="internal">
        <lane id=":1242967058_3_0" index="0" disallow="tram rail_urban rail rail_electric rail_fast ship" speed="7.10" length="10.87" shape="625.44,2272.35 622.10,2273.64 619.39,2273.89 617.29,2273.12 615.81,2271.32"/>
    </edge>
    <edge id=":1242967058_4" function="internal">
        <lane id=":1242967058_4_0" index="0" disallow="tram rail_urban rail rail_electric rail_fast ship" speed="6.84" length="2.24" shape="618.67,2269.88 619.22,2272.06"/>
    </edge>
    <edge id=":1242967058_5" function="internal">
        <lane id=":1242967058_5_0" index="0" disallow="tram rail_urban rail rail_electric rail_fast ship" speed="3.65" length="1.44" shape="618.67,2269.88 618.49,2271.31"/>
    </edge>
    <edge id=":1242967058_6" function="internal">
        <lane id=":1242967058_6_0" index="0" disallow="tram rail_urban rail rail_electric rail_fast ship" speed="6.84" length="8.61" shape="619.22,2272.06 619.26,2272.19 618.57,2274.27 616.62,2276.11 613.39,2277.71"/>
    </edge>
    <edge id=":1242967058_7" function="internal">
        <lane id=":1242967058_7_0" index="0" disallow="tram rail_urban rail rail_electric rail_fast ship" speed="3.65" length="3.23" shape="618.49,2271.31 617.96,2272.03 617.07,2272.04 615.81,2271.32"/>
    </edge>
    <edge id=":1242967117_0" function="internal">
        <lane id=":1242967117_0_0" index="0" disallow="tram rail_urban rail rail_electric rail_fast ship" speed="7.05" length="10.56" shape="855.43,2732.36 854.72,2729.22 853.40,2727.05 851.48,2725.84 848.96,2725.60"/>
    </edge>
    <edge id=":1242967117_1" function="internal">
        <lane id=":1242967117_1_0" index="0" disallow="tram rail_urban rail rail_electric rail_fast ship" speed="13.89" length="14.31" shape="855.43,2732.36 853.69,2718.17"/>
    </edge>
    <edge id=":1242967117_2" function="internal">
        <lane id=":1242967117_2_0" index="0" disallow="tram rail_urban rail rail_electric rail_fast ship" speed="7.97" length="3.91" shape="855.43,2732.36 855.55,2728.45"/>
    </edge>
    <edge id=":1242967117_3" function="internal">
        <lane id=":1242967117_3_0" index="0" disallow="tram rail_urban rail rail_electric rail_fast ship" speed="3.65" length="1.44" shape="855.43,2732.36 856.09,2731.08"/>
    </edge>
    <edge id=":1242967117_12" function="internal">
        <lane id=":1242967117_12_0" index="0" disallow="tram rail_urban rail rail_electric rail_fast ship" speed="7.97" length="10.34" shape="855.55,2728.45 856.90,2725.54 859.47,2723.62 863.28,2722.69"/>
    </edge>
    <edge id=":1242967117_13" function="internal">
        <lane id=":1242967117_13_0" index="0" disallow="tram rail_urban rail rail_electric rail_fast ship" speed="3.65" length="3.23" shape="856.09,2731.08 856.84,2730.60 857.68,2730.90 858.61,2732.01"/>
    </edge>
    <edge id=":1242967117_4" function="internal">
        <lane id=":1242967117_4_0" index="0" disallow="tram rail_urban rail rail_electric rail_fast ship" speed="6.47" length="9.03" shape="863.58,2725.88 861.17,2726.46 859.54,2727.68 858.68,2729.53 858.61,2732.01"/>
    </edge>
    <edge id=":1242967117_5" function="internal">
        <lane id=":1242967117_5_0" index="0" disallow="tram rail_urban rail rail_electric rail_fast ship" speed="13.89" length="14.64" shape="863.58,2725.88 859.90,2725.98 856.27,2725.76 852.65,2725.53 848.96,2725.60"/>
    </edge>
    <edge id=":1242967117_6" function="internal">
        <lane id=":1242967117_6_0" index="0" disallow="tram rail_urban rail rail_electric rail_fast ship" speed="8.11" length="14.19" shape="863.58,2725.88 859.68,2725.71 856.73,2724.37 854.74,2721.86 853.69,2718.17"/>
    </edge>
    <edge id=":1242967117_7" function="internal">
        <lane id=":1242967117_7_0" index="0" disallow="tram rail_urban rail rail_electric rail_fast ship" speed="3.65" length="4.67" shape="863.58,2725.88 862.31,2725.20 861.84,2724.44 862.16,2723.61 863.28,2722.69"/>
    </edge>
    <edge id=":1242967117_8" function="internal">
        <lane id=":1242967117_8_0" index="0" disallow="tram rail_urban rail rail_electric rail_fast ship" speed="6.63" length="9.16" shape="856.86,2717.74 857.54,2720.11 858.83,2721.73 860.74,2722.59 863.28,2722.69"/>
    </edge>
    <edge id=":1242967117_9" function="internal">
        <lane id=":1242967117_9_0" index="0" disallow="tram rail_urban rail rail_electric rail_fast ship" speed="13.89" length="14.37" shape="856.86,2717.74 858.61,2732.01"/>
    </edge>
    <edge id=":1242967117_10" function="internal">
        <lane id=":1242967117_10_0" index="0" disallow="tram rail_urban rail rail_electric rail_fast ship" speed="7.51" length="3.31" shape="856.86,2717.74 856.72,2720.90 856.65,2721.03"/>
    </edge>
    <edge id=":1242967117_11" function="internal">
        <lane id=":1242967117_11_0" index="0" disallow="tram rail_urban rail rail_electric rail_fast ship" speed="3.65" length="1.44" shape="856.86,2717.74 856.23,2719.04"/>
    </edge>
    <edge id=":1242967117_14" function="internal">
        <lane id=":1242967117_14_0" index="0" disallow="tram rail_urban rail rail_electric rail_fast ship" speed="7.51" length="9.49" shape="856.65,2721.03 855.36,2723.26 852.77,2724.83 848.96,2725.60"/>
    </edge>
    <edge id=":1242967117_15" function="internal">
        <lane id=":1242967117_15_0" index="0" disallow="tram rail_urban rail rail_electric rail_fast ship" speed="3.65" length="3.23" shape="856.23,2719.04 855.49,2719.54 854.64,2719.25 853.69,2718.17"/>
    </edge>
    <edge id=":1242967122_0" function="internal">
        <lane id=":1242967122_0_0" index="0" disallow="tram rail_urban rail rail_electric rail_fast ship" speed="13.89" length="6.59" shape="568.23,2919.01 567.46,2917.21 566.97,2915.95 566.65,2914.65 566.41,2912.72"/>
    </edge>
    <edge id=":1242967122_1" function="internal">
        <lane id=":1242967122_1_0" index="0" disallow="tram rail_urban rail rail_electric rail_fast ship" speed="13.89" length="5.63" shape="569.60,2912.44 569.81,2914.08 570.09,2915.19 570.53,2916.26 571.19,2917.80"/>
    </edge>
    <edge id=":1242967142_0" function="internal">
        <lane id=":1242967142_0_0" index="0" disallow="tram rail_urban rail rail_electric rail_fast ship" speed="6.63" length="9.24" shape="923.48,2485.67 920.97,2486.27 919.24,2487.49 918.29,2489.33 918.11,2491.79"/>
    </edge>
    <edge id=":1242967142_1" function="internal">
        <lane id=":1242967142_1_0" index="0" disallow="tram rail_urban rail rail_electric rail_fast ship" speed="13.89" length="11.55" shape="923.48,2485.67 920.28,2485.73 917.73,2485.43 915.17,2485.12 911.97,2485.17"/>
    </edge>
    <edge id=":1242967142_2" function="internal">
        <lane id=":1242967142_2_0" index="0" disallow="tram rail_urban rail rail_electric rail_fast ship" speed="3.65" length="1.44" shape="923.48,2485.67 922.21,2484.99"/>
    </edge>
    <edge id=":1242967142_6" function="internal">
        <lane id=":1242967142_6_0" index="0" disallow="tram rail_urban rail rail_electric rail_fast ship" speed="3.65" length="3.23" shape="922.21,2484.99 921.73,2484.23 922.05,2483.40 923.16,2482.48"/>
    </edge>
    <edge id=":1242967142_3" function="internal">
        <lane id=":1242967142_3_0" index="0" disallow="tram rail_urban rail rail_electric rail_fast ship" speed="6.39" length="9.04" shape="917.25,2477.36 917.71,2479.82 918.85,2481.49 920.67,2482.37 923.16,2482.48"/>
    </edge>
    <edge id=":1242967142_4" function="internal">
        <lane id=":1242967142_4_0" index="0" disallow="tram rail_urban rail rail_electric rail_fast ship" speed="13.89" length="14.45" shape="917.25,2477.36 918.11,2491.79"/>
    </edge>
    <edge id=":1242967142_5" function="internal">
        <lane id=":1242967142_5_0" index="0" disallow="tram rail_urban rail rail_electric rail_fast ship" speed="7.11" length="6.58" shape="917.25,2477.36 917.04,2480.58 916.09,2482.96 915.50,2483.49"/>
    </edge>
    <edge id=":1242967142_7" function="internal">
        <lane id=":1242967142_7_0" index="0" disallow="tram rail_urban rail rail_electric rail_fast ship" speed="7.11" length="4.01" shape="915.50,2483.49 914.40,2484.48 911.97,2485.17"/>
    </edge>
    <edge id=":1242967153_0" function="internal">
        <lane id=":1242967153_0_0" index="0" disallow="tram rail_urban rail rail_electric rail_fast ship" speed="13.89" length="6.31" shape="1668.15,2868.51 1667.23,2870.12 1666.80,2871.32 1666.56,2872.60 1666.21,2874.45"/>
    </edge>
    <edge id=":1242967153_1" function="internal">
        <lane id=":1242967153_1_0" index="0" disallow="tram rail_urban rail rail_electric rail_fast ship" speed="5.23" length="3.96" shape="1668.15,2868.51 1666.50,2870.61 1665.41,2871.30"/>
    </edge>
    <edge id=":1242967153_4" function="internal">
        <lane id=":1242967153_4_0" index="0" disallow="tram rail_urban rail rail_electric rail_fast ship" speed="5.23" length="3.63" shape="1665.41,2871.30 1665.02,2871.54 1663.70,2871.29 1662.55,2869.87"/>
    </edge>
    <edge id=":1242967153_2" function="internal">
        <lane id=":1242967153_2_0" index="0" disallow="tram rail_urban rail rail_electric rail_fast ship" speed="7.39" length="4.07" shape="1663.08,2873.76 1663.31,2872.59 1663.32,2871.75 1663.08,2870.94 1662.55,2869.87"/>
    </edge>
    <edge id=":1242967153_3" function="internal">
        <lane id=":1242967153_3_0" index="0" disallow="tram rail_urban rail rail_electric rail_fast ship" speed="3.65" length="1.44" shape="1663.08,2873.76 1664.12,2872.76"/>
    </edge>
    <edge id=":1242967153_5" function="internal">
        <lane id=":1242967153_5_0" index="0" disallow="tram rail_urban rail rail_electric rail_fast ship" speed="3.65" length="3.23" shape="1664.12,2872.76 1664.99,2872.54 1665.68,2873.10 1666.21,2874.45"/>
    </edge>
    <edge id=":1242967235_0" function="internal">
        <lane id=":1242967235_0_0" index="0" disallow="tram rail_urban rail rail_electric rail_fast ship" speed="11.45" length="6.35" shape="910.29,2452.26 911.93,2453.19 913.09,2453.86 914.01,2454.74 914.99,2456.30"/>
    </edge>
    <edge id=":1242967248_0" function="internal">
        <lane id=":1242967248_0_0" index="0" disallow="tram rail_urban rail rail_electric rail_fast ship" speed="13.89" length="1.44" shape="557.70,2852.90 557.51,2852.51 557.38,2852.25 557.28,2851.97 557.16,2851.56"/>
    </edge>
    <edge id=":1242967248_1" function="internal">
        <lane id=":1242967248_1_0" index="0" disallow="tram rail_urban rail rail_electric rail_fast ship" speed="13.89" length="0.33" shape="560.28,2851.52 560.60,2851.55"/>
    </edge>
    <edge id=":1242967271_0" function="internal">
        <lane id=":1242967271_0_0" index="0" disallow="tram rail_urban rail rail_electric rail_fast ship" speed="6.54" length="9.10" shape="798.14,2501.89 797.58,2499.44 796.38,2497.76 794.54,2496.85 792.07,2496.70"/>
    </edge>
    <edge id=":1242967271_1" function="internal">
        <lane id=":1242967271_1_0" index="0" disallow="tram rail_urban rail rail_electric rail_fast ship" speed="3.65" length="1.44" shape="798.14,2501.89 798.83,2500.62"/>
    </edge>
    <edge id=":1242967271_6" function="internal">
        <lane id=":1242967271_6_0" index="0" disallow="tram rail_urban rail rail_electric rail_fast ship" speed="3.65" length="3.23" shape="798.83,2500.62 799.59,2500.15 800.43,2500.48 801.33,2501.61"/>
    </edge>
    <edge id=":1242967271_2" function="internal">
        <lane id=":1242967271_2_0" index="0" disallow="tram rail_urban rail rail_electric rail_fast ship" speed="6.46" length="9.03" shape="806.46,2495.62 804.03,2496.14 802.37,2497.31 801.46,2499.13 801.33,2501.61"/>
    </edge>
    <edge id=":1242967271_3" function="internal">
        <lane id=":1242967271_3_0" index="0" disallow="tram rail_urban rail rail_electric rail_fast ship" speed="13.89" length="14.43" shape="806.46,2495.62 792.07,2496.70"/>
    </edge>
    <edge id=":1242967271_4" function="internal">
        <lane id=":1242967271_4_0" index="0" disallow="tram rail_urban rail rail_electric rail_fast ship" speed="13.89" length="11.42" shape="798.74,2490.51 799.27,2493.65 800.04,2496.06 800.80,2498.47 801.33,2501.61"/>
    </edge>
    <edge id=":1242967271_5" function="internal">
        <lane id=":1242967271_5_0" index="0" disallow="tram rail_urban rail rail_electric rail_fast ship" speed="6.90" length="6.27" shape="798.74,2490.51 798.51,2493.00 797.32,2494.85 795.96,2495.64"/>
    </edge>
    <edge id=":1242967271_7" function="internal">
        <lane id=":1242967271_7_0" index="0" disallow="tram rail_urban rail rail_electric rail_fast ship" speed="6.90" length="4.07" shape="795.96,2495.64 795.18,2496.09 792.07,2496.70"/>
    </edge>
    <edge id=":1242967296_0" function="internal">
        <lane id=":1242967296_0_0" index="0" disallow="tram rail_urban rail rail_electric rail_fast ship" speed="8.47" length="1.25" shape="611.11,2262.02 610.95,2260.78"/>
    </edge>
    <edge id=":1242967296_1" function="internal">
        <lane id=":1242967296_1_0" index="0" disallow="tram rail_urban rail rail_electric rail_fast ship" speed="6.82" length="1.24" shape="611.11,2262.02 610.95,2260.78"/>
    </edge>
    <edge id=":1242967296_2" function="internal">
        <lane id=":1242967296_2_0" index="0" disallow="tram rail_urban rail rail_electric rail_fast ship" speed="3.65" length="1.11" shape="611.11,2262.02 611.25,2260.92"/>
    </edge>
    <edge id=":1242967296_6" function="internal">
        <lane id=":1242967296_6_0" index="0" disallow="tram rail_urban rail rail_electric rail_fast ship" speed="8.47" length="10.45" shape="610.95,2260.78 610.89,2260.31 611.68,2258.08 613.47,2255.32 616.28,2252.04"/>
    </edge>
    <edge id=":1242967296_7" function="internal">
        <lane id=":1242967296_7_0" index="0" disallow="tram rail_urban rail rail_electric rail_fast ship" speed="6.82" length="9.79" shape="610.95,2260.78 610.89,2260.25 612.02,2258.53 614.51,2256.86 618.37,2255.24"/>
    </edge>
    <edge id=":1242967296_8" function="internal">
        <lane id=":1242967296_8_0" index="0" disallow="tram rail_urban rail rail_electric rail_fast ship" speed="3.65" length="3.56" shape="611.25,2260.92 611.29,2260.59 611.82,2259.87 612.71,2259.87 613.97,2260.58"/>
    </edge>
    <edge id=":1242967296_3" function="internal">
        <lane id=":1242967296_3_0" index="0" disallow="tram rail_urban rail rail_electric rail_fast ship" speed="22.22" length="13.10" shape="606.84,2261.09 609.48,2258.87 611.74,2256.76 613.91,2254.55 616.28,2252.04"/>
    </edge>
    <edge id=":1242967296_4" function="internal">