<?xml version="1.0" encoding="UTF-8"?>

<!-- generated on 2024-02-01 13:25:20 by Eclipse SUMO netedit Version 1.19.0
<configuration xmlns:xsi="http://www.w3.org/2001/XMLSchema-instance" xsi:noNamespaceSchemaLocation="http://sumo.dlr.de/xsd/neteditConfiguration.xsd">

    <input>
        <sumo-net-file value="/home/alessandro/Desktop/mosaic-23.1/scenarios/Highway_CITS_HIL_Scaled/sumo/highway.net.xml"/>
    </input>

    <output>
        <output-file value="/home/alessandro/Desktop/mosaic-23.1/scenarios/Highway_CITS_HIL_Scaled/sumo/highway.net.xml"/>
    </output>

    <processing>
        <offset.disable-normalization value="true"/>
    </processing>

    <junctions>
        <no-turnarounds value="true"/>
    </junctions>

    <netedit>
        <new-network value="false"/>
    </netedit>

</configuration>
-->

<net version="1.16" junctionCornerDetail="5" limitTurnSpeed="5.50" xmlns:xsi="http://www.w3.org/2001/XMLSchema-instance" xsi:noNamespaceSchemaLocation="http://sumo.dlr.de/xsd/net_file.xsd">

    <location netOffset="0.00,0.00" convBoundary="-91.80,67.08,-15.49,68.22" origBoundary="10000000000.00,10000000000.00,-10000000000.00,-10000000000.00" projParameter="!"/>

    <edge id="9827680_41779436_26305479" from="J0" to="J1" priority="-1">
        <lane id="9827680_41779436_26305479_0" index="0" speed="13.89" length="76.32" shape="-15.47,68.68 -91.78,69.82"/>
    </edge>

    <junction id="J0" type="dead_end" x="-15.49" y="67.08" incLanes="" intLanes="" shape="-15.49,67.08 -15.44,70.28"/>
    <junction id="J1" type="dead_end" x="-91.80" y="68.22" incLanes="9827680_41779436_26305479_0" intLanes="" shape="-91.75,71.42 -91.80,68.22"/>

</net>
