<?xml version="1.0" encoding="UTF-8"?>

<!-- generated on 2024-02-01 13:26:49 by Eclipse SUMO netedit Version 1.19.0
-->

<routes xmlns:xsi="http://www.w3.org/2001/XMLSchema-instance" xsi:noNamespaceSchemaLocation="http://sumo.dlr.de/xsd/routes_file.xsd">
    <!-- Routes -->
    <route id="r_0" edges="9827680_41779436_26305479"/>
</routes>
